 49
  -1469.42432446792
 S    -0.66208154    -3.24534312     1.28807001
 C    -1.62433485    -2.23954413     0.17196357
 C     1.17920130    -1.42540689    -0.86341655
 C    -1.23083807    -1.71017116    -0.97756190
 C     0.15781504    -1.94989401    -1.53144360
 C    -2.98735588    -2.11153149     0.79687042
 C     2.63551200    -1.43414822    -0.83278466
 C    -2.17919609    -1.00199997    -1.90585113
 C     0.31440947    -2.74607209    -2.79000014
 C    -3.75683526    -3.21283343     1.14891623
 C     3.34302237    -0.25128240    -0.82701355
 C    -3.44174450    -0.81873615     1.12215594
 C     3.34624219    -2.65347176    -0.76535776
 C    -3.31252438    -1.62234351    -2.41937222
 C    -0.30290041    -3.98655437    -2.92470285
 C    -1.89922285     0.30032250    -2.31101239
 C     1.07838644    -2.26287550    -3.84652862
 C    -5.02443619    -3.01753625     1.72698841
 C     4.74208987    -0.25742599    -0.77286134
 C    -4.66927060    -0.64367551     1.70315739
 C     4.71117210    -2.66436091    -0.71613234
 C    -4.15857950    -0.95191635    -3.28738212
 C    -0.14782692    -4.73106289    -4.08134719
 C    -2.73824474     0.97001577    -3.18374762
 C     1.23008508    -3.00512135    -5.00621672
 C    -5.47055374    -1.75430307     2.00488071
 C     5.42901882    -1.45434133    -0.71953894
 C    -3.87684807     0.34678914    -3.67332132
 C     0.61940655    -4.24228281    -5.12684943
 H    -3.41058524    -4.20325366     0.93378510
 H     2.81400822     0.68414930    -0.86165382
 H    -2.82160372     0.02637722     0.89257276
 H     2.80096253    -3.58008963    -0.76495237
 H    -3.53401730    -2.63604998    -2.13900919
 H    -0.90564948    -4.37272597    -2.12121472
 H    -1.01642122     0.79035397    -1.93792704
 H     1.55026468    -1.30109125    -3.76156162
 H    -5.63405190    -3.87187078     1.96010009
 H     5.27737280     0.67527945    -0.77170447
 H    -5.01651715     0.34736200     1.93381416
 H     5.23951755    -3.60008903    -0.67352665
 H    -5.03266251    -1.44993994    -3.66850042
 H    -0.62575696    -5.69105454    -4.16543584
 H    -2.50562791     1.97746588    -3.48033092
 H     1.82184961    -2.61451839    -5.81497264
 H    -6.43343971    -1.60910700     2.46125732
 H     6.50321619    -1.46518740    -0.67693567
 H    -4.53103893     0.86564665    -4.35124879
 H     0.73696577    -4.81838065    -6.02732356

