 49
  -1469.40655533371
 S     0.10712128    -1.30104193     0.94788880
 C    -1.46740007    -1.35944303     0.15836641
 C     0.96950220    -1.75030318    -0.52168240
 C    -1.32971747    -1.71455440    -1.17208047
 C     0.08169888    -1.92607984    -1.56983786
 C    -2.64559229    -1.03077086     0.93449274
 C     2.40916090    -1.89656495    -0.46454639
 C    -2.45684274    -1.97137691    -2.11584637
 C     0.46781357    -2.19587148    -2.98581233
 C    -3.85996930    -0.52991104     0.33574824
 C     3.17706520    -1.23168783     0.56102790
 C    -2.63626997    -1.14703092     2.37378096
 C     3.14511574    -2.73796894    -1.37725545
 C    -3.28891720    -3.07019804    -1.92946400
 C     0.16485458    -3.40926480    -3.59602280
 C    -2.68854523    -1.13501903    -3.20362066
 C     1.13066379    -1.22323137    -3.72689903
 C    -4.93047508    -0.19996346     1.09141364
 C     4.51744038    -1.37689768     0.64669750
 C    -3.71618852    -0.82077434     3.11617289
 C     4.48544702    -2.88010102    -1.27503564
 C    -4.33061905    -3.32632402    -2.80624322
 C     0.52433581    -3.64665733    -4.91207070
 C    -3.73137803    -1.38784996    -4.07888159
 C     1.48821905    -1.45813368    -5.04460702
 C    -4.90424532    -0.33819745     2.50434611
 C     5.22202855    -2.20290740    -0.26861368
 C    -4.55451483    -2.48559059    -3.88373738
 C     1.18652307    -2.67126524    -5.64062755
 H    -3.90381126    -0.39478527    -0.72494604
 H     2.67404185    -0.58652298     1.25684144
 H    -1.75848435    -1.52596363     2.86299151
 H     2.61587710    -3.27863644    -2.13409615
 H    -3.12028005    -3.72429566    -1.09279469
 H    -0.35514632    -4.16848991    -3.04038734
 H    -2.04979722    -0.28585746    -3.36656634
 H     1.37008701    -0.28117861    -3.26702067
 H    -5.81626775     0.18343327     0.61683360
 H     5.06191079    -0.85501009     1.41346934
 H    -3.68185001    -0.93383395     4.18517974
 H     5.00368064    -3.52527346    -1.96209451
 H    -4.96460663    -4.18028094    -2.64651804
 H     0.28413813    -4.59049896    -5.36823784
 H    -3.89775860    -0.73073134    -4.91381929
 H     2.00139967    -0.69504008    -5.60230207
 H    -5.76004883    -0.07885602     3.09766871
 H     6.28675059    -2.31677139    -0.19666135
 H    -5.36347964    -2.68210777    -4.56458753
 H     1.46498094    -2.85617955    -6.66281814

