 49
  -1469.45785489528
 S    -0.52427387    -3.17086500     1.31947843
 C    -1.61313138    -2.30305299     0.27733464
 C     1.18071770    -1.54290677    -0.78069629
 C    -1.23914069    -1.88449784    -0.98172108
 C     0.15913129    -2.01833832    -1.49583344
 C    -2.97218905    -2.01505088     0.84660747
 C     2.62212432    -1.52555031    -0.74491446
 C    -2.19747519    -1.20190359    -1.91315953
 C     0.35664293    -2.67261926    -2.83138612
 C    -3.83460380    -3.04178694     1.18600281
 C     3.33166556    -0.34085213    -0.92771636
 C    -3.37499477    -0.68430381     1.09378783
 C     3.34577396    -2.70982064    -0.44532781
 C    -3.37497757    -1.81369463    -2.32780067
 C    -0.26516802    -3.88742011    -3.10344777
 C    -1.89189366     0.06157452    -2.41008422
 C     1.16746931    -2.10556036    -3.80784380
 C    -5.09194167    -2.76386662     1.74666791
 C     4.73013211    -0.32765496    -0.84014298
 C    -4.59578363    -0.41998714     1.64810442
 C     4.70698372    -2.68385498    -0.36514678
 C    -4.23102612    -1.17438694    -3.20828749
 C    -0.07531611    -4.52312282    -4.31830263
 C    -2.75195055     0.70701594    -3.28171941
 C     1.35677999    -2.73973626    -5.02437834
 C    -5.46946298    -1.46944713     1.97620855
 C     5.41165574    -1.48208945    -0.56417676
 C    -3.92458723     0.08938043    -3.68466753
 C     0.73659446    -3.95047269    -5.28381100
 H    -3.54322233    -4.06415423     1.02142947
 H     2.79927198     0.56950485    -1.13798953
 H    -2.71132485     0.12267360     0.84276870
 H     2.80421691    -3.62437890    -0.28920847
 H    -3.62376621    -2.79271130    -1.96270749
 H    -0.89264863    -4.34226947    -2.35778086
 H    -0.97855359     0.54304269    -2.10917624
 H     1.64956315    -1.16436570    -3.61835150
 H    -5.75094341    -3.57601544     1.99726381
 H     5.26176960     0.59514168    -0.98938084
 H    -4.89044507     0.59739931     1.83472302
 H     5.24846089    -3.58729412    -0.14788124
 H    -5.13577860    -1.66429949    -3.52098658
 H    -0.55957917    -5.46429702    -4.50939833
 H    -2.50429311     1.68732258    -3.64825524
 H     1.98543605    -2.28511085    -5.76924102
 H    -6.42938219    -1.25105188     2.40919203
 H     6.48471029    -1.47548281    -0.49484325
 H    -4.59122133     0.58682945    -4.36631440
 H     0.88276384    -4.44215728    -6.22902165

