  49
  -1469.46214582026
 S     0.12161529    -1.30147506     0.99837941
 C    -1.46510428    -1.37548686     0.19665073
 C     0.98806679    -1.73125163    -0.49521077
 C    -1.28656223    -1.74484116    -1.22074208
 C     0.01969939    -1.91781435    -1.59265878
 C    -2.64507169    -1.02778214     0.94186522
 C     2.41577137    -1.90080808    -0.45435362
 C    -2.43492211    -1.97654182    -2.14938766
 C     0.43392114    -2.20478817    -3.00011828
 C    -3.87173913    -0.64760616     0.33739270
 C     3.16149095    -1.36098399     0.62534847
 C    -2.60784208    -1.01551785     2.36020716
 C     3.14870744    -2.62571960    -1.43004081
 C    -3.25401694    -3.08741004    -1.97568703
 C     0.19539963    -3.44344928    -3.58314833
 C    -2.70309046    -1.10303750    -3.19638730
 C     1.06545473    -1.21948464    -3.75199402
 C    -4.96053741    -0.30104044     1.09710849
 C     4.52354310    -1.51746462     0.70941662
 C    -3.70839123    -0.67142342     3.10660878
 C     4.50861555    -2.77792626    -1.32868825
 C    -4.31825409    -3.31995665    -2.83000284
 C     0.58276675    -3.69340975    -4.88994313
 C    -3.76964061    -1.33334959    -4.05061081
 C     1.45047222    -1.46712532    -5.05853621
 C    -4.89953846    -0.31156565     2.48830881
 C     5.21693989    -2.22500081    -0.26483999
 C    -4.58002761    -2.44185505    -3.86974019
 C     1.21135164    -2.70641292    -5.63089911
 H    -3.95338941    -0.60342996    -0.72792019
 H     2.66066760    -0.79502051     1.38806887
 H    -1.70865002    -1.30301582     2.87178534
 H     2.63987199    -3.08635636    -2.25001166
 H    -3.06074480    -3.76716637    -1.16482778
 H    -0.29361503    -4.21295578    -3.01409643
 H    -2.07686736    -0.24209048    -3.34348602
 H     1.26110911    -0.25873987    -3.30969154
 H    -5.87091059    -0.00857065     0.60426517
 H     5.05383243    -1.08330310     1.53847391
 H    -3.64252754    -0.68521032     4.18015915
 H     5.02962237    -3.34240464    -2.08177019
 H    -4.94205806    -4.18353310    -2.68281343
 H     0.39213037    -4.65729556    -5.32707225
 H    -3.96496498    -0.64779654    -4.85582298
 H     1.93722878    -0.69486970    -5.62708752
 H    -5.75866719    -0.03948744     3.07411901
 H     6.28235043    -2.34911973    -0.19556244
 H    -5.40766512    -2.62041385    -4.53277079
 H     1.51182047    -2.90055240    -6.64505041

